  USGS MODFLOW MODEL BATCH-MODE REPORT

 ./A1.mfn                                                                        
  Normal termination of simulation.
