 LISTING FILE: A1.out
                         UNIT  26

 OPENING A1.bas
 FILE TYPE:BAS   UNIT   1

 OPENING A1.bcf
 FILE TYPE:BCF   UNIT  11

 OPENING A1.oc
 FILE TYPE:OC   UNIT  10

 OPENING A1.hed
 FILE TYPE:DATA   UNIT  30

 OPENING A1.pcg
 FILE TYPE:PCG   UNIT  12

 OPENING A1.wel
 FILE TYPE:WEL   UNIT  13

 OPENING A1.rch
 FILE TYPE:RCH   UNIT  20
1                                 MODFLOW
      U.S. GEOLOGICAL SURVEY MODULAR FINITE-DIFFERENCE GROUND-WATER FLOW MODEL

                                                                                 
                                                                                 
 THE FREE FORMAT OPTION HAS BEEN SELECTED
   10 LAYERS        50 ROWS        50 COLUMNS
   1 STRESS PERIOD(S) IN SIMULATION
 MODEL TIME UNIT IS SECONDS

 BAS5 -- BASIC MODEL PACKAGE, VERSION 5, 1/1/95 INPUT READ FROM UNIT  1
 ARRAYS RHS AND BUFF WILL SHARE MEMORY
 INITIAL HEAD WILL NOT BE KEPT THROUGHOUT THE SIMULATION, WHICH MEANS
 DRAWDOWN CANNOT BE CALCULATED
     222640 ELEMENTS IN X ARRAY ARE USED BY BAS
     222640 ELEMENTS OF X ARRAY USED OUT OF    1500000

 BCF5 -- BLOCK-CENTERED FLOW PACKAGE, VERSION 5, 9/1/93 INPUT READ FROM UNIT 11
 STEADY-STATE SIMULATION
 CELL-BY-CELL FLOWS WILL BE SAVED ON UNIT 40
 HEAD AT CELLS THAT CONVERT TO DRY=  -888.00    
 WETTING CAPABILITY IS NOT ACTIVE
      LAYER  LAYER-TYPE CODE     INTERBLOCK T
      --------------------------------------------
         1            0          0 -- HARMONIC    
         2            0          0 -- HARMONIC    
         3            0          0 -- HARMONIC    
         4            0          0 -- HARMONIC    
         5            0          0 -- HARMONIC    
         6            0          0 -- HARMONIC    
         7            0          0 -- HARMONIC    
         8            0          0 -- HARMONIC    
         9            0          0 -- HARMONIC    
        10            0          0 -- HARMONIC    
         10 ELEMENTS IN X ARRAY ARE USED BY BCF
     222650 ELEMENTS OF X ARRAY USED OUT OF    1500000

 WEL5 -- WELL PACKAGE, VERSION 5, 9/1/93 INPUT READ FROM UNIT 13
 MAXIMUM OF    6 WELLS
         24 ELEMENTS IN X ARRAY ARE USED BY WEL
     222674 ELEMENTS OF X ARRAY USED OUT OF    1500000

 RCH5 -- RECHARGE PACKAGE, VERSION 5, 6/1/95 INPUT READ FROM UNIT 20
 OPTION 3 -- RECHARGE TO HIGHEST ACTIVE NODE IN EACH VERTICAL COLUMN
 CELL-BY-CELL FLOWS WILL BE SAVED ON UNIT 40
       5000 ELEMENTS IN X ARRAY ARE USED BY RCH
     227674 ELEMENTS OF X ARRAY USED OUT OF    1500000
0PCG2 -- CONJUGATE GRADIENT SOLUTION PACKAGE, VERSION 2.1, 6/1/95
 MAXIMUM OF  25 CALLS OF SOLUTION ROUTINE
 MAXIMUM OF  50 INTERNAL ITERATIONS PER CALL TO SOLUTION ROUTINE
 MATRIX PRECONDITIONING TYPE :    0
  111250 ELEMENTS IN X ARRAY ARE USED BY PCG
  338924 ELEMENTS OF X ARRAY USED OUT OF1500000
1
                                                                                 
                                                                                 



                     BOUNDARY ARRAY FOR LAYER   1
 READING ON UNIT   1 WITH FORMAT: (FREE)              

                1           2           3           4           5           6           7           8           9          10
               11          12          13          14          15          16          17          18          19          20
               21          22          23          24          25          26          27          28          29          30
               31          32          33          34          35          36          37          38          39          40
               41          42          43          44          45          46          47          48          49          50
 ............................................................................................................................
   1           -1          -1          -1          -1          -1          -1          -1          -1          -1          -1
               -1          -1          -1          -1          -1          -1          -1          -1          -1          -1
               -1          -1          -1          -1          -1          -1          -1          -1          -1          -1
               -1          -1          -1          -1          -1          -1          -1          -1          -1          -1
               -1          -1          -1          -1          -1          -1          -1          -1          -1          -1
   2            1           1           1           1           1           1           1           1           1           1
                1           1           1           1           1           1           1           1           1           1
                1           1           1           1           1           1           1           1           1           1
                1           1           1           1           1           1           1           1           1           1
                1           1           1           1           1           1           1           1           1          -1
   3            1           1           1           1           1           1           1           1           1           1
                1           1           1           1           1           1           1           1           1           1
                1           1           1           1           1           1           1           1           1           1
                1           1           1           1           1           1           1           1           1           1
                1           1           1           1           1           1           1           1           1          -1
   4            1           1           1           1           1           1           1           1           1           1
                1           1           1           1           1           1           1           1           1           1
                1           1           1           1           1           1           1           1           1           1
                1           1           1           1           1           1           1           1           1           1
                1           1           1           1           1           1           1           1           1          -1
   5            1           1           1           1           1           1           1           1           1           1
                1           1           1           1           1           1           1           1           1           1
                1           1           1           1           1           1           1           1           1           1
                1           1           1           1           1           1           1           1           1           1
                1           1           1           1           1           1           1           1           1          -1
   6            1           1           1           1           1           1           1           1           1           1
                1           1           1           1           1           1           1           1           1           1
                1           1           1           1           1           1           1           1           1           1
                1           1           1           1           1           1           1           1           1           1
                1           1           1           1           1           1           1           1           1          -1
   7            1           1           1           1           1           1           1           1           1           1
                1           1           1           1           1           1           1           1           1           1
                1           1           1           1           1           1           1           1           1           1
                1           1           1           1           1           1           1           1           1           1
                1           1           1           1           1           1           1           1           1          -1
   8            1           1           1           1           1           1           1           1           1           1
                1           1           1           1           1           1           1           1           1           1
                1           1           1           1           1           1           1           1           1           1
                1           1           1           1           1           1           1           1           1           1
                1           1           1           1           1           1           1           1           1          -1
   9            1           1           1           1           1           1           1           1           1           1
                1           1           1           1           1           1           1           1           1           1
                1           1           1           1           1           1           1           1           1           1
                1           1           1           1           1           1           1           1           1           1
                1           1           1           1           1           1           1           1           1          -1
  10            1           1           1           1           1           1           1           1           1           1
                1           1           1           1           1           1           1           1           1           1
                1           1           1           1           1           1           1           1           1           1
                1           1           1           1           1           1           1           1           1           1
                1           1           1           1           1           1           1           1           1          -1
  11            1           1           1           1           1           1           1           1           1           1
                1           1           1           1           1           1           1           1           1           1
                1           1           1           1           1           1           1           1           1           1
                1           1           1           1           1           1           1           1           1           1
                1           1           1           1           1           1           1           1           1          -1
  12            1           1           1           1           1           1           1           1           1           1
                1           1           1           1           1           1           1           1           1           1
                1           1           1           1           1           1           1           1           1           1
                1           1           1           1           1           1           1           1           1           1
                1           1           1           1           1           1           1           1           1          -1
  13            1           1           1           1           1           1           1           1           1           1
                1           1           1           1           1           1           1           1           1           1
                1           1           1           1           1           1           1           1           1           1
                1           1           1           1           1           1           1           1           1           1
                1           1           1           1           1           1           1           1           1          -1
  14            1           1           1           1           1           1           1           1           1           1
                1           1           1           1           1           1           1           1           1           1
                1           1           1           1           1           1           1           1           1           1
                1           1           1           1           1           1           1           1           1           1
                1           1           1           1           1           1           1           1           1          -1
  15            1           1           1           1           1           1           1           1           1           1
                1           1           1           1           1           1           1           1           1           1
                1           1           1           1           1           1           1           1           1           1
                1           1           1           1           1           1           1           1           1           1
                1           1           1           1           1           1           1           1           1          -1
  16            1           1           1           1           1           1           1           1           1           1
                1           1           1           1           1           1           1           1           1           1
                1           1           1           1           1           1           1           1           1           1
                1           1           1           1           1           1           1           1           1           1
                1           1           1           1           1           1           1           1           1          -1
  17            1           1           1           1           1           1           1           1           1           1
                1           1           1           1           1           1           1           1           1           1
                1           1           1           1           1           1           1           1           1           1
                1           1           1           1           1           1           1           1           1           1
                1           1           1           1           1           1           1           1           1          -1
  18            1           1           1           1           1           1           1           1           1           1
                1           1           1           1           1           1           1           1           1           1
                1           1           1           1           1           1           1           1           1           1
                1           1           1           1           1           1           1           1           1           1
                1           1           1           1           1           1           1           1           1          -1
  19            1           1           1           1           1           1           1           1           1           1
                1           1           1           1           1           1           1           1           1           1
                1           1           1           1           1           1           1           1           1           1
                1           1           1           1           1           1           1           1           1           1
                1           1           1           1           1           1           1           1           1          -1
  20            1           1           1           1           1           1           1           1           1           1
                1           1           1           1           1           1           1           1           1           1
                1           1           1           1           1           1           1           1           1           1
                1           1           1           1           1           1           1           1           1           1
                1           1           1           1           1           1           1           1           1          -1
  21            1           1           1           1           1           1           1           1           1           1
                1           1           1           1           1           1           1           1           1           1
                1           1           1           1           1           1           1           1           1           1
                1           1           1           1           1           1           1           1           1           1
                1           1           1           1           1           1           1           1           1          -1
  22            1           1           1           1           1           1           1           1           1           1
                1           1           1           1           1           1           1           1           1           1
                1           1           1           1           1           1           1           1           1           1
                1           1           1           1           1           1           1           1           1           1
                1           1           1           1           1           1           1           1           1          -1
  23            1           1           1           1           1           1           1           1           1           1
                1           1           1           1           1           1           1           1           1           1
                1           1           1           1           1           1           1           1           1           1
                1           1           1           1           1           1           1           1           1           1
                1           1           1           1           1           1           1           1           1          -1
  24            1           1           1           1           1           1           1           1           1           1
                1           1           1           1           1           1           1           1           1           1
                1           1           1           1           1           1           1           1           1           1
                1           1           1           1           1           1           1           1           1           1
                1           1           1           1           1           1           1           1           1          -1
  25            1           1           1           1           1           1           1           1           1           1
                1           1           1           1           1           1           1           1           1           1
                1           1           1           1           1           1           1           1           1           1
                1           1           1           1           1           1           1           1           1           1
                1           1           1           1           1           1           1           1           1          -1
  26            1           1           1           1           1           1           1           1           1           1
                1           1           1           1           1           1           1           1           1           1
                1           1           1           1           1           1           1           1           1           1
                1           1           1           1           1           1           1           1           1           1
                1           1           1           1           1           1           1           1           1          -1
  27            1           1           1           1           1           1           1           1           1           1
                1           1           1           1           1           1           1           1           1           1
                1           1           1           1           1           1           1           1           1           1
                1           1           1           1           1           1           1           1           1           1
                1           1           1           1           1           1           1           1           1          -1
  28            1           1           1           1           1           1           1           1           1           1
                1           1           1           1           1           1           1           1           1           1
                1           1           1           1           1           1           1           1           1           1
                1           1           1           1           1           1           1           1           1           1
                1           1           1           1           1           1           1           1           1          -1
  29            1           1           1           1           1           1           1           1           1           1
                1           1           1           1           1           1           1           1           1           1
                1           1           1           1           1           1           1           1           1           1
                1           1           1           1           1           1           1           1           1           1
                1           1           1           1           1           1           1           1           1          -1
  30            1           1           1           1           1           1           1           1           1           1
                1           1           1           1           1           1           1           1           1           1
                1           1           1           1           1           1           1           1           1           1
                1           1           1           1           1           1           1           1           1           1
                1           1           1           1           1           1           1           1           1          -1
  31            1           1           1           1           1           1           1           1           1           1
                1           1           1           1           1           1           1           1           1           1
                1           1           1           1           1           1           1           1           1           1
                1           1           1           1           1           1           1           1           1           1
                1           1           1           1           1           1           1           1           1          -1
  32            1           1           1           1           1           1           1           1           1           1
                1           1           1           1           1           1           1           1           1           1
                1           1           1           1           1           1           1           1           1           1
                1           1           1           1           1           1           1           1           1           1
                1           1           1           1           1           1           1           1           1          -1
  33            1           1           1           1           1           1           1           1           1           1
                1           1           1           1           1           1           1           1           1           1
                1           1           1           1           1           1           1           1           1           1
                1           1           1           1           1           1           1           1           1           1
                1           1           1           1           1           1           1           1           1          -1
  34            1           1           1           1           1           1           1           1           1           1
                1           1           1           1           1           1           1           1           1           1
                1           1           1           1           1           1           1           1           1           1
                1           1           1           1           1           1           1           1           1           1
                1           1           1           1           1           1           1           1           1          -1
  35            1           1           1           1           1           1           1           1           1           1
                1           1           1           1           1           1           1           1           1           1
                1           1           1           1           1           1           1           1           1           1
                1           1           1           1           1           1           1           1           1           1
                1           1           1           1           1           1           1           1           1          -1
  36            1           1           1           1           1           1           1           1           1           1
                1           1           1           1           1           1           1           1           1           1
                1           1           1           1           1           1           1           1           1           1
                1           1           1           1           1           1           1           1           1           1
                1           1           1           1           1           1           1           1           1          -1
  37            1           1           1           1           1           1           1           1           1           1
                1           1           1           1           1           1           1           1           1           1
                1           1           1           1           1           1           1           1           1           1
                1           1           1           1           1           1           1           1           1           1
                1           1           1           1           1           1           1           1           1          -1
  38            1           1           1           1           1           1           1           1           1           1
                1           1           1           1           1           1           1           1           1           1
                1           1           1           1           1           1           1           1           1           1
                1           1           1           1           1           1           1           1           1           1
                1           1           1           1           1           1           1           1           1          -1
  39            1           1           1           1           1           1           1           1           1           1
                1           1           1           1           1           1           1           1           1           1
                1           1           1           1           1           1           1           1           1           1
                1           1           1           1           1           1           1           1           1           1
                1           1           1           1           1           1           1           1           1          -1
  40            1           1           1           1           1           1           1           1           1           1
                1           1           1           1           1           1           1           1           1           1
                1           1           1           1           1           1           1           1           1           1
                1           1           1           1           1           1           1           1           1           1
                1           1           1           1           1           1           1           1           1          -1
  41            1           1           1           1           1           1           1           1           1           1
                1           1           1           1           1           1           1           1           1           1
                1           1           1           1           1           1           1           1           1           1
                1           1           1           1           1           1           1           1           1           1
                1           1           1           1           1           1           1           1           1          -1
  42            1           1           1           1           1           1           1           1           1           1
                1           1           1           1           1           1           1           1           1           1
                1           1           1           1           1           1           1           1           1           1
                1           1           1           1           1           1           1           1           1           1
                1           1           1           1           1           1           1           1           1          -1
  43            1           1           1           1           1           1           1           1           1           1
                1           1           1           1           1           1           1           1           1           1
                1           1           1           1           1           1           1           1           1           1
                1           1           1           1           1           1           1           1           1           1
                1           1           1           1           1           1           1           1           1          -1
  44            1           1           1           1           1           1           1           1           1           1
                1           1           1           1           1           1           1           1           1           1
                1           1           1           1           1           1           1           1           1           1
                1           1           1           1           1           1           1           1           1           1
                1           1           1           1           1           1           1           1           1          -1
  45            1           1           1           1           1           1           1           1           1           1
                1           1           1           1           1           1           1           1           1           1
                1           1           1           1           1           1           1           1           1           1
                1           1           1           1           1           1           1           1           1           1
                1           1           1           1           1           1           1           1           1          -1
  46            1           1           1           1           1           1           1           1           1           1
                1           1           1           1           1           1           1           1           1           1
                1           1           1           1           1           1           1           1           1           1
                1           1           1           1           1           1           1           1           1           1
                1           1           1           1           1           1           1           1           1          -1
  47            1           1           1           1           1           1           1           1           1           1
                1           1           1           1           1           1           1           1           1           1
                1           1           1           1           1           1           1           1           1           1
                1           1           1           1           1           1           1           1           1           1
                1           1           1           1           1           1           1           1           1          -1
  48            1           1           1           1           1           1           1           1           1           1
                1           1           1           1           1           1           1           1           1           1
                1           1           1           1           1           1           1           1           1           1
                1           1           1           1           1           1           1           1           1           1
                1           1           1           1           1           1           1           1           1          -1
  49            1           1           1           1           1           1           1           1           1           1
                1           1           1           1           1           1           1           1           1           1
                1           1           1           1           1           1           1           1           1           1
                1           1           1           1           1           1           1           1           1           1
                1           1           1           1           1           1           1           1           1          -1
  50            1           1           1           1           1           1           1           1           1           1
                1           1           1           1           1           1           1           1           1           1
                1           1           1           1           1           1           1           1           1           1
                1           1           1           1           1           1           1           1           1           1
                1           1           1           1           1           1           1           1           1          -1



                     BOUNDARY ARRAY FOR LAYER   2
 READING ON UNIT   1 WITH FORMAT: (FREE)              

                1           2           3           4           5           6           7           8           9          10
               11          12          13          14          15          16          17          18          19          20
               21          22          23          24          25          26          27          28          29          30
               31          32          33          34          35          36          37          38          39          40
               41          42          43          44          45          46          47          48          49          50
 ............................................................................................................................
   1           -1          -1          -1          -1          -1          -1          -1          -1          -1          -1
               -1          -1          -1          -1          -1          -1          -1          -1          -1          -1
               -1          -1          -1          -1          -1          -1          -1          -1          -1          -1
               -1          -1          -1          -1          -1          -1          -1          -1          -1          -1
               -1          -1          -1          -1          -1          -1          -1          -1          -1          -1
   2            1           1           1           1           1           1           1           1           1           1
                1           1           1           1           1           1           1           1           1           1
                1           1           1           1           1           1           1           1           1           1
                1           1           1           1           1           1           1           1           1           1
                1           1           1           1           1           1           1           1           1          -1
   3            1           1           1           1           1           1           1           1           1           1
                1           1           1           1           1           1           1           1           1           1
                1           1           1           1           1           1           1           1           1           1
                1           1           1           1           1           1           1           1           1           1
                1           1           1           1           1           1           1           1           1          -1
   4            1           1           1           1           1           1           1           1           1           1
                1           1           1           1           1           1           1           1           1           1
                1           1           1           1           1           1           1           1           1           1
                1           1           1           1           1           1           1           1           1           1
                1           1           1           1           1           1           1           1           1          -1
   5            1           1           1           1           1           1           1           1           1           1
                1           1           1           1           1           1           1           1           1           1
                1           1           1           1           1           1           1           1           1           1
                1           1           1           1           1           1           1           1           1           1
                1           1           1           1           1           1           1           1           1          -1
   6            1           1           1           1           1           1           1           1           1           1
                1           1           1           1           1           1           1           1           1           1
                1           1           1           1           1           1           1           1           1           1
                1           1           1           1           1           1           1           1           1           1
                1           1           1           1           1           1           1           1           1          -1
   7            1           1           1           1           1           1           1           1           1           1
                1           1           1           1           1           1           1           1           1           1
                1           1           1           1           1           1           1           1           1           1
                1           1           1           1           1           1           1           1           1           1
                1           1           1           1           1           1           1           1           1          -1
   8            1           1           1           1           1           1           1           1           1           1
                1           1           1           1           1           1           1           1           1           1
                1           1           1           1           1           1           1           1           1           1
                1           1           1           1           1           1           1           1           1           1
                1           1           1           1           1           1           1           1           1          -1
   9            1           1           1           1           1           1           1           1           1           1
                1           1           1           1           1           1           1           1           1           1
                1           1           1           1           1           1           1           1           1           1
                1           1           1           1           1           1           1           1           1           1
                1           1           1           1           1           1           1           1           1          -1
  10            1           1           1           1           1           1           1           1           1           1
                1           1           1           1           1           1           1           1           1           1
                1           1           1           1           1           1           1           1           1           1
                1           1           1           1           1           1           1           1           1           1
                1           1           1           1           1           1           1           1           1          -1
  11            1           1           1           1           1           1           1           1           1           1
                1           1           1           1           1           1           1           1           1           1
                1           1           1           1           1           1           1           1           1           1
                1           1           1           1           1           1           1           1           1           1
                1           1           1           1           1           1           1           1           1          -1
  12            1           1           1           1           1           1           1           1           1           1
                1           1           1           1           1           1           1           1           1           1
                1           1           1           1           1           1           1           1           1           1
                1           1           1           1           1           1           1           1           1           1
                1           1           1           1           1           1           1           1           1          -1
  13            1           1           1           1           1           1           1           1           1           1
                1           1           1           1           1           1           1           1           1           1
                1           1           1           1           1           1           1           1           1           1
                1           1           1           1           1           1           1           1           1           1
                1           1           1           1           1           1           1           1           1          -1
  14            1           1           1           1           1           1           1           1           1           1
                1           1           1           1           1           1           1           1           1           1
                1           1           1           1           1           1           1           1           1           1
                1           1           1           1           1           1           1           1           1           1
                1           1           1           1           1           1           1           1           1          -1
  15            1           1           1           1           1           1           1           1           1           1
                1           1           1           1           1           1           1           1           1           1
                1           1           1           1           1           1           1           1           1           1
                1           1           1           1           1           1           1           1           1           1
                1           1           1           1           1           1           1           1           1          -1
  16            1           1           1           1           1           1           1           1           1           1
                1           1           1           1           1           1           1           1           1           1
                1           1           1           1           1           1           1           1           1           1
                1           1           1           1           1           1           1           1           1           1
                1           1           1           1           1           1           1           1           1          -1
  17            1           1           1           1           1           1           1           1           1           1
                1           1           1           1           1           1           1           1           1           1
                1           1           1           1           1           1           1           1           1           1
                1           1           1           1           1           1           1           1           1           1
                1           1           1           1           1           1           1           1           1          -1
  18            1           1           1           1           1           1           1           1           1           1
                1           1           1           1           1           1           1           1           1           1
                1           1           1           1           1           1           1           1           1           1
                1           1           1           1           1           1           1           1           1           1
                1           1           1           1           1           1           1           1           1          -1
  19            1           1           1           1           1           1           1           1           1           1
                1           1           1           1           1           1           1           1           1           1
                1           1           1           1           1           1           1           1           1           1
                1           1           1           1           1           1           1           1           1           1
                1           1           1           1           1           1           1           1           1          -1
  20            1           1           1           1           1           1           1           1           1           1
                1           1           1           1           1           1           1           1           1           1
                1           1           1           1           1           1           1           1           1           1
                1           1           1           1           1           1           1           1           1           1
                1           1           1           1           1           1           1           1           1          -1
  21            1           1           1           1           1           1           1           1           1           1
                1           1           1           1           1           1           1           1           1           1
                1           1           1           1           1           1           1           1           1           1
                1           1           1           1           1           1           1           1           1           1
                1           1           1           1           1           1           1           1           1          -1
  22            1           1           1           1           1           1           1           1           1           1
                1           1           1           1           1           1           1           1           1           1
                1           1           1           1           1           1           1           1           1           1
                1           1           1           1           1           1           1           1           1           1
                1           1           1           1           1           1           1           1           1          -1
  23            1           1           1           1           1           1           1           1           1           1
                1           1           1           1           1           1           1           1           1           1
                1           1           1           1           1           1           1           1           1           1
                1           1           1           1           1           1           1           1           1           1
                1           1           1           1           1           1           1           1           1          -1
  24            1           1           1           1           1           1           1           1           1           1
                1           1           1           1           1           1           1           1           1           1
                1           1           1           1           1           1           1           1           1           1
                1           1           1           1           1           1           1           1           1           1
                1           1           1           1           1           1           1           1           1          -1
  25            1           1           1           1           1           1           1           1           1           1
                1           1           1           1           1           1           1           1           1           1
                1           1           1           1           1           1           1           1           1           1
                1           1           1           1           1           1           1           1           1           1
                1           1           1           1           1           1           1           1           1          -1
  26            1           1           1           1           1           1           1           1           1           1
                1           1           1           1           1           1           1           1           1           1
                1           1           1           1           1           1           1           1           1           1
                1           1           1           1           1           1           1           1           1           1
                1           1           1           1           1           1           1           1           1          -1
  27            1           1           1           1           1           1           1           1           1           1
                1           1           1           1           1           1           1           1           1           1
                1           1           1           1           1           1           1           1           1           1
                1           1           1           1           1           1           1           1           1           1
                1           1           1           1           1           1           1           1           1          -1
  28            1           1           1           1           1           1           1           1           1           1
                1           1           1           1           1           1           1           1           1           1
                1           1           1           1           1           1           1           1           1           1
                1           1           1           1           1           1           1           1           1           1
                1           1           1           1           1           1           1           1           1          -1
  29            1           1           1           1           1           1           1           1           1           1
                1           1           1           1           1           1           1           1           1           1
                1           1           1           1           1           1           1           1           1           1
                1           1           1           1           1           1           1           1           1           1
                1           1           1           1           1           1           1           1           1          -1
  30            1           1           1           1           1           1           1           1           1           1
                1           1           1           1           1           1           1           1           1           1
                1           1           1           1           1           1           1           1           1           1
                1           1           1           1           1           1           1           1           1           1
                1           1           1           1           1           1           1           1           1          -1
  31            1           1           1           1           1           1           1           1           1           1
                1           1           1           1           1           1           1           1           1           1
                1           1           1           1           1           1           1           1           1           1
                1           1           1           1           1           1           1           1           1           1
                1           1           1           1           1           1           1           1           1          -1
  32            1           1           1           1           1           1           1           1           1           1
                1           1           1           1           1           1           1           1           1           1
                1           1           1           1           1           1           1           1           1           1
                1           1           1           1           1           1           1           1           1           1
                1           1           1           1           1           1           1           1           1          -1
  33            1           1           1           1           1           1           1           1           1           1
                1           1           1           1           1           1           1           1           1           1
                1           1           1           1           1           1           1           1           1           1
                1           1           1           1           1           1           1           1           1           1
                1           1           1           1           1           1           1           1           1          -1
  34            1           1           1           1           1           1           1           1           1           1
                1           1           1           1           1           1           1           1           1           1
                1           1           1           1           1           1           1           1           1           1
                1           1           1           1           1           1           1           1           1           1
                1           1           1           1           1           1           1           1           1          -1
  35            1           1           1           1           1           1           1           1           1           1
                1           1           1           1           1           1           1           1           1           1
                1           1           1           1           1           1           1           1           1           1
                1           1           1           1           1           1           1           1           1           1
                1           1           1           1           1           1           1           1           1          -1
  36            1           1           1           1           1           1           1           1           1           1
                1           1           1           1           1           1           1           1           1           1
                1           1           1           1           1           1           1           1           1           1
                1           1           1           1           1           1           1           1           1           1
                1           1           1           1           1           1           1           1           1          -1
  37            1           1           1           1           1           1           1           1           1           1
                1           1           1           1           1           1           1           1           1           1
                1           1           1           1           1           1           1           1           1           1
                1           1           1           1           1           1           1           1           1           1
                1           1           1           1           1           1           1           1           1          -1
  38            1           1           1           1           1           1           1           1           1           1
                1           1           1           1           1           1           1           1           1           1
                1           1           1           1           1           1           1           1           1           1
                1           1           1           1           1           1           1           1           1           1
                1           1           1           1           1           1           1           1           1          -1
  39            1           1           1           1           1           1           1           1           1           1
                1           1           1           1           1           1           1           1           1           1
                1           1           1           1           1           1           1           1           1           1
                1           1           1           1           1           1           1           1           1           1
                1           1           1           1           1           1           1           1           1          -1
  40            1           1           1           1           1           1           1           1           1           1
                1           1           1           1           1           1           1           1           1           1
                1           1           1           1           1           1           1           1           1           1
                1           1           1           1           1           1           1           1           1           1
                1           1           1           1           1           1           1           1           1          -1
  41            1           1           1           1           1           1           1           1           1           1
                1           1           1           1           1           1           1           1           1           1
                1           1           1           1           1           1           1           1           1           1
                1           1           1           1           1           1           1           1           1           1
                1           1           1           1           1           1           1           1           1          -1
  42            1           1           1           1           1           1           1           1           1           1
                1           1           1           1           1           1           1           1           1           1
                1           1           1           1           1           1           1           1           1           1
                1           1           1           1           1           1           1           1           1           1
                1           1           1           1           1           1           1           1           1          -1
  43            1           1           1           1           1           1           1           1           1           1
                1           1           1           1           1           1           1           1           1           1
                1           1           1           1           1           1           1           1           1           1
                1           1           1           1           1           1           1           1           1           1
                1           1           1           1           1           1           1           1           1          -1
  44            1           1           1           1           1           1           1           1           1           1
                1           1           1           1           1           1           1           1           1           1
                1           1           1           1           1           1           1           1           1           1
                1           1           1           1           1           1           1           1           1           1
                1           1           1           1           1           1           1           1           1          -1
  45            1           1           1           1           1           1           1           1           1           1
                1           1           1           1           1           1           1           1           1           1
                1           1           1           1           1           1           1           1           1           1
                1           1           1           1           1           1           1           1           1           1
                1           1           1           1           1           1           1           1           1          -1
  46            1           1           1           1           1           1           1           1           1           1
                1           1           1           1           1           1           1           1           1           1
                1           1           1           1           1           1           1           1           1           1
                1           1           1           1           1           1           1           1           1           1
                1           1           1           1           1           1           1           1           1          -1
  47            1           1           1           1           1           1           1           1           1           1
                1           1           1           1           1           1           1           1           1           1
                1           1           1           1           1           1           1           1           1           1
                1           1           1           1           1           1           1           1           1           1
                1           1           1           1           1           1           1           1           1          -1
  48            1           1           1           1           1           1           1           1           1           1
                1           1           1           1           1           1           1           1           1           1
                1           1           1           1           1           1           1           1           1           1
                1           1           1           1           1           1           1           1           1           1
                1           1           1           1           1           1           1           1           1          -1
  49            1           1           1           1           1           1           1           1           1           1
                1           1           1           1           1           1           1           1           1           1
                1           1           1           1           1           1           1           1           1           1
                1           1           1           1           1           1           1           1           1           1
                1           1           1           1           1           1           1           1           1          -1
  50            1           1           1           1           1           1           1           1           1           1
                1           1           1           1           1           1           1           1           1           1
                1           1           1           1           1           1           1           1           1           1
                1           1           1           1           1           1           1           1           1           1
                1           1           1           1           1           1           1           1           1          -1



                     BOUNDARY ARRAY FOR LAYER   3
 READING ON UNIT   1 WITH FORMAT: (FREE)              

                1           2           3           4           5           6           7           8           9          10
               11          12          13          14          15          16          17          18          19          20
               21          22          23          24          25          26          27          28          29          30
               31          32          33          34          35          36          37          38          39          40
               41          42          43          44          45          46          47          48          49          50
 ............................................................................................................................
   1           -1          -1          -1          -1          -1          -1          -1          -1          -1          -1
               -1          -1          -1          -1          -1          -1          -1          -1          -1          -1
               -1          -1          -1          -1          -1          -1          -1          -1          -1          -1
               -1          -1          -1          -1          -1          -1          -1          -1          -1          -1
               -1          -1          -1          -1          -1          -1          -1          -1          -1          -1
   2            1           1           1           1           1           1           1           1           1           1
                1           1           1           1           1           1           1           1           1           1
                1           1           1           1           1           1           1           1           1           1
                1           1           1           1           1           1           1           1           1           1
                1           1           1           1           1           1           1           1           1          -1
   3            1           1           1           1           1           1           1           1           1           1
                1           1           1           1           1           1           1           1           1           1
                1           1           1           1           1           1           1           1           1           1
                1           1           1           1           1           1           1           1           1           1
                1           1           1           1           1           1           1           1           1          -1
   4            1           1           1           1           1           1           1           1           1           1
                1           1           1           1           1           1           1           1           1           1
                1           1           1           1           1           1           1           1           1           1
                1           1           1           1           1           1           1           1           1           1
                1           1           1           1           1           1           1           1           1          -1
   5            1           1           1           1           1           1           1           1           1           1
                1           1           1           1           1           1           1           1           1           1
                1           1           1           1           1           1           1           1           1           1
                1           1           1           1           1           1           1           1           1           1
                1           1           1           1           1           1           1           1           1          -1
   6            1           1           1           1           1           1           1           1           1           1
                1           1           1           1           1           1           1           1           1           1
                1           1           1           1           1           1           1           1           1           1
                1           1           1           1           1           1           1           1           1           1
                1           1           1           1           1           1           1           1           1          -1
   7            1           1           1           1           1           1           1           1           1           1
                1           1           1           1           1           1           1           1           1           1
                1           1           1           1           1           1           1           1           1           1
                1           1           1           1           1           1           1           1           1           1
                1           1           1           1           1           1           1           1           1          -1
   8            1           1           1           1           1           1           1           1           1           1
                1           1           1           1           1           1           1           1           1           1
                1           1           1           1           1           1           1           1           1           1
                1           1           1           1           1           1           1           1           1           1
                1           1           1           1           1           1           1           1           1          -1
   9            1           1           1           1           1           1           1           1           1           1
                1           1           1           1           1           1           1           1           1           1
                1           1           1           1           1           1           1           1           1           1
                1           1           1           1           1           1           1           1           1           1
                1           1           1           1           1           1           1           1           1          -1
  10            1           1           1           1           1           1           1           1           1           1
                1           1           1           1           1           1           1           1           1           1
                1           1           1           1           1           1           1           1           1           1
                1           1           1           1           1           1           1           1           1           1
                1           1           1           1           1           1           1           1           1          -1
  11            1           1           1           1           1           1           1           1           1           1
                1           1           1           1           1           1           1           1           1           1
                1           1           1           1           1           1           1           1           1           1
                1           1           1           1           1           1           1           1           1           1
                1           1           1           1           1           1           1           1           1          -1
  12            1           1           1           1           1           1           1           1           1           1
                1           1           1           1           1           1           1           1           1           1
                1           1           1           1           1           1           1           1           1           1
                1           1           1           1           1           1           1           1           1           1
                1           1           1           1           1           1           1           1           1          -1
  13            1           1           1           1           1           1           1           1           1           1
                1           1           1           1           1           1           1           1           1           1
                1           1           1           1           1           1           1           1           1           1
                1           1           1           1           1           1           1           1           1           1
                1           1           1           1           1           1           1           1           1          -1
  14            1           1           1           1           1           1           1           1           1           1
                1           1           1           1           1           1           1           1           1           1
                1           1           1           1           1           1           1           1           1           1
                1           1           1           1           1           1           1           1           1           1
                1           1           1           1           1           1           1           1           1          -1
  15            1           1           1           1           1           1           1           1           1           1
                1           1           1           1           1           1           1           1           1           1
                1           1           1           1           1           1           1           1           1           1
                1           1           1           1           1           1           1           1           1           1
                1           1           1           1           1           1           1           1           1          -1
  16            1           1           1           1           1           1           1           1           1           1
                1           1           1           1           1           1           1           1           1           1
                1           1           1           1           1           1           1           1           1           1
                1           1           1           1           1           1           1           1           1           1
                1           1           1           1           1           1           1           1           1          -1
  17            1           1           1           1           1           1           1           1           1           1
                1           1           1           1           1           1           1           1           1           1
                1           1           1           1           1           1           1           1           1           1
                1           1           1           1           1           1           1           1           1           1
                1           1           1           1           1           1           1           1           1          -1
  18            1           1           1           1           1           1           1           1           1           1
                1           1           1           1           1           1           1           1           1           1
                1           1           1           1           1           1           1           1           1           1
                1           1           1           1           1           1           1           1           1           1
                1           1           1           1           1           1           1           1           1          -1
[...]
       49.29  49.29  49.29  49.28  49.28  49.27  49.26  49.24  49.21  49.18
       49.15  49.11  49.06  49.01  48.96  48.91  48.87  48.83  48.80  48.79
       48.80  48.81  48.84  48.87  48.91  48.94  48.97  49.00  49.02  49.04
   4   49.33  49.31  49.29  49.27  49.24  49.22  49.20  49.19  49.19  49.20
       49.20  49.21  49.20  49.20  49.18  49.16  49.15  49.13  49.12  49.12
       49.13  49.14  49.15  49.16  49.16  49.16  49.15  49.13  49.11  49.07
       49.03  48.98  48.92  48.86  48.79  48.72  48.65  48.60  48.56  48.56
       48.58  48.62  48.68  48.74  48.80  48.86  48.92  48.97  49.02  49.06
   5   49.12  49.10  49.08  49.04  49.00  48.97  48.95  48.95  48.97  48.99
       49.00  49.02  49.02  49.02  49.00  48.98  48.96  48.94  48.93  48.94
       48.96  48.99  49.02  49.04  49.05  49.05  49.05  49.03  49.01  48.97
       48.92  48.86  48.78  48.70  48.60  48.51  48.42  48.34  48.30  48.30
       48.34  48.41  48.50  48.60  48.70  48.79  48.87  48.95  49.02  49.08
   6   48.91  48.90  48.86  48.81  48.76  48.71  48.68  48.69  48.73  48.77
       48.81  48.83  48.84  48.84  48.82  48.79  48.76  48.73  48.72  48.75
       48.79  48.83  48.88  48.91  48.94  48.95  48.95  48.94  48.91  48.87
       48.81  48.74  48.65  48.54  48.42  48.29  48.16  48.05  47.98  47.98
       48.06  48.18  48.32  48.46  48.59  48.71  48.82  48.92  49.02  49.10
   7   48.73  48.70  48.65  48.58  48.50  48.42  48.37  48.41  48.48  48.55
       48.61  48.66  48.68  48.67  48.65  48.61  48.55  48.50  48.48  48.52
       48.60  48.67  48.74  48.80  48.84  48.86  48.86  48.85  48.82  48.78
       48.71  48.63  48.52  48.40  48.24  48.07  47.88  47.70  47.58  47.59
       47.73  47.92  48.13  48.32  48.49  48.65  48.78  48.91  49.02  49.12
   8   48.56  48.53  48.46  48.36  48.23  48.08  47.97  48.07  48.21  48.34
       48.43  48.50  48.52  48.52  48.49  48.43  48.34  48.23  48.16  48.26
       48.40  48.52  48.62  48.69  48.75  48.77  48.78  48.78  48.75  48.70
       48.63  48.54  48.42  48.27  48.08  47.86  47.59  47.29  47.04  47.05
       47.33  47.65  47.94  48.19  48.41  48.59  48.75  48.89  49.02  49.14
   9   48.42  48.38  48.30  48.17  47.96  47.66  47.25  47.66  47.95  48.15
       48.28  48.36  48.40  48.40  48.36  48.27  48.12  47.89  47.57  47.93
       48.20  48.38  48.52  48.61  48.67  48.71  48.72  48.71  48.69  48.64
       48.56  48.47  48.34  48.17  47.96  47.68  47.31  46.79  46.09  46.12
       46.84  47.38  47.79  48.10  48.35  48.56  48.73  48.89  49.03  49.16
  10   48.31  48.27  48.18  48.03  47.76  47.16  44.51  47.16  47.76  48.02
       48.18  48.27  48.31  48.31  48.26  48.16  47.96  47.48  45.30  47.52
       48.05  48.29  48.45  48.55  48.62  48.66  48.67  48.67  48.64  48.59
       48.52  48.42  48.29  48.12  47.89  47.59  47.13  46.25  43.02  43.16
       46.32  47.22  47.71  48.06  48.33  48.55  48.73  48.90  49.04  49.18
  11   48.24  48.20  48.12  47.99  47.79  47.49  47.08  47.49  47.79  47.99
       48.13  48.21  48.25  48.26  48.22  48.14  47.99  47.77  47.45  47.81
       48.09  48.28  48.42  48.52  48.58  48.62  48.64  48.64  48.61  48.57
       48.50  48.40  48.28  48.11  47.90  47.63  47.26  46.74  46.05  46.08
       46.81  47.36  47.77  48.09  48.35  48.56  48.75  48.91  49.06  49.20
  12   48.21  48.17  48.11  48.01  47.88  47.74  47.63  47.74  47.89  48.02
       48.12  48.19  48.23  48.24  48.21  48.16  48.08  47.98  47.92  48.03
       48.18  48.32  48.43  48.51  48.57  48.61  48.63  48.62  48.60  48.56
       48.50  48.41  48.30  48.15  47.97  47.75  47.49  47.20  46.95  46.98
       47.27  47.60  47.91  48.17  48.40  48.60  48.78  48.94  49.08  49.22
  13   48.19  48.17  48.12  48.06  47.98  47.91  47.87  47.91  47.99  48.08
       48.15  48.20  48.24  48.25  48.24  48.21  48.17  48.13  48.13  48.18
       48.27  48.37  48.45  48.52  48.58  48.61  48.63  48.63  48.61  48.57
       48.51  48.44  48.34  48.22  48.08  47.91  47.73  47.57  47.46  47.48
       47.64  47.85  48.07  48.29  48.49  48.67  48.83  48.98  49.11  49.24
  14   48.20  48.19  48.15  48.11  48.06  48.03  48.01  48.03  48.08  48.13
       48.19  48.23  48.26  48.27  48.27  48.26  48.25  48.24  48.25  48.30
       48.36  48.43  48.49  48.55  48.59  48.62  48.64  48.64  48.62  48.59
       48.55  48.48  48.40  48.31  48.20  48.08  47.96  47.86  47.81  47.83
       47.93  48.08  48.25  48.42  48.58  48.74  48.88  49.02  49.14  49.26
  15   48.22  48.21  48.19  48.16  48.14  48.12  48.11  48.12  48.15  48.19
       48.23  48.26  48.29  48.30  48.31  48.31  48.32  48.32  48.34  48.38
       48.43  48.48  48.53  48.58  48.62  48.64  48.66  48.66  48.65  48.63
       48.59  48.54  48.48  48.40  48.32  48.24  48.16  48.10  48.08  48.10
       48.18  48.28  48.41  48.55  48.68  48.82  48.94  49.06  49.17  49.28
  16   48.25  48.24  48.23  48.21  48.19  48.18  48.18  48.20  48.22  48.24
       48.27  48.30  48.32  48.34  48.35  48.36  48.37  48.39  48.41  48.45
       48.49  48.53  48.58  48.62  48.65  48.67  48.69  48.69  48.69  48.67
       48.64  48.60  48.56  48.50  48.44  48.39  48.34  48.30  48.30  48.32
       48.38  48.46  48.56  48.67  48.78  48.89  49.00  49.11  49.21  49.30
  17   48.27  48.27  48.26  48.25  48.24  48.24  48.24  48.25  48.27  48.29
       48.31  48.33  48.35  48.37  48.39  48.40  48.42  48.44  48.47  48.50
       48.54  48.58  48.62  48.65  48.68  48.71  48.72  48.73  48.73  48.72
       48.70  48.67  48.64  48.60  48.56  48.52  48.49  48.48  48.48  48.50
       48.55  48.61  48.69  48.78  48.88  48.97  49.06  49.15  49.24  49.32
  18   48.30  48.29  48.29  48.29  48.28  48.28  48.29  48.30  48.31  48.32
       48.34  48.36  48.38  48.40  48.42  48.44  48.46  48.48  48.51  48.55
       48.58  48.62  48.66  48.69  48.72  48.74  48.76  48.77  48.77  48.77
       48.76  48.74  48.72  48.69  48.67  48.64  48.63  48.62  48.63  48.66
       48.70  48.75  48.82  48.89  48.97  49.05  49.12  49.20  49.27  49.34
  19   48.32  48.32  48.32  48.32  48.32  48.32  48.32  48.33  48.34  48.35
       48.37  48.39  48.40  48.42  48.44  48.46  48.49  48.52  48.55  48.59
       48.62  48.66  48.69  48.73  48.76  48.78  48.80  48.81  48.82  48.82
       48.82  48.81  48.80  48.78  48.77  48.76  48.75  48.75  48.76  48.79
       48.82  48.87  48.92  48.98  49.05  49.11  49.18  49.24  49.31  49.36
  20   48.34  48.34  48.34  48.34  48.34  48.34  48.35  48.36  48.37  48.38
       48.39  48.41  48.42  48.44  48.46  48.48  48.51  48.54  48.58  48.62
       48.65  48.69  48.73  48.76  48.79  48.82  48.84  48.86  48.87  48.88
       48.88  48.88  48.87  48.87  48.86  48.86  48.86  48.86  48.88  48.90
       48.93  48.97  49.02  49.07  49.12  49.18  49.23  49.29  49.34  49.38
  21   48.35  48.35  48.35  48.35  48.36  48.36  48.37  48.38  48.38  48.40
       48.41  48.42  48.43  48.45  48.47  48.49  48.52  48.56  48.60  48.64
       48.68  48.72  48.76  48.80  48.83  48.86  48.88  48.90  48.92  48.93
       48.94  48.94  48.94  48.94  48.94  48.95  48.95  48.96  48.98  49.00
       49.03  49.07  49.11  49.15  49.19  49.24  49.28  49.33  49.37  49.40
  22   48.36  48.36  48.36  48.36  48.37  48.37  48.38  48.39  48.40  48.41
       48.42  48.43  48.44  48.45  48.47  48.49  48.53  48.57  48.61  48.66
       48.70  48.75  48.79  48.83  48.86  48.90  48.92  48.95  48.96  48.98
       48.99  49.00  49.01  49.02  49.02  49.03  49.04  49.05  49.07  49.09
       49.12  49.15  49.18  49.22  49.26  49.29  49.33  49.36  49.40  49.42
  23   48.36  48.36  48.36  48.37  48.37  48.38  48.39  48.39  48.40  48.41
       48.42  48.43  48.43  48.44  48.45  48.47  48.51  48.57  48.62  48.67
       48.72  48.77  48.82  48.86  48.90  48.93  48.96  48.99  49.01  49.03
       49.05  49.06  49.07  49.08  49.09  49.11  49.12  49.13  49.15  49.17
       49.20  49.22  49.25  49.28  49.31  49.34  49.37  49.40  49.42  49.44
  24   48.36  48.36  48.36  48.37  48.37  48.38  48.39  48.39  48.40  48.41
       48.42  48.42  48.42  48.42  48.42  48.43  48.49  48.56  48.62  48.68
       48.74  48.80  48.84  48.89  48.93  48.97  49.00  49.03  49.05  49.08
       49.10  49.11  49.13  49.15  49.16  49.17  49.19  49.21  49.22  49.25
       49.27  49.29  49.32  49.34  49.37  49.39  49.41  49.43  49.45  49.46
  25   48.35  48.35  48.35  48.36  48.36  48.37  48.38  48.39  48.40  48.41
       48.41  48.42  48.41  48.40  48.37  48.31  48.44  48.54  48.62  48.70
       48.76  48.82  48.87  48.92  48.96  49.00  49.03  49.07  49.10  49.12
       49.14  49.17  49.18  49.20  49.22  49.24  49.25  49.27  49.29  49.31
       49.33  49.35  49.37  49.39  49.42  49.43  49.45  49.47  49.48  49.48
  26   48.33  48.33  48.33  48.34  48.35  48.36  48.37  48.38  48.39  48.40
       48.41  48.41  48.41  48.38  48.29  47.76  48.36  48.53  48.63  48.71
       48.78  48.84  48.89  48.94  48.99  49.03  49.07  49.10  49.13  49.16
       49.19  49.21  49.24  49.26  49.28  49.29  49.31  49.33  49.35  49.37
       49.39  49.41  49.43  49.44  49.46  49.48  49.49  49.50  49.50  49.51
  27   48.30  48.30  48.31  48.32  48.33  48.34  48.35  48.37  48.38  48.39
       48.40  48.41  48.41  48.40  48.38  48.33  48.46  48.56  48.65  48.73
       48.80  48.86  48.92  48.97  49.02  49.06  49.10  49.14  49.17  49.20
       49.23  49.26  49.28  49.31  49.33  49.35  49.37  49.39  49.40  49.42
       49.44  49.46  49.47  49.49  49.50  49.51  49.52  49.53  49.53  49.53
  28   48.27  48.27  48.28  48.29  48.30  48.31  48.33  48.35  48.36  48.38
       48.40  48.41  48.42  48.43  48.44  48.46  48.53  48.61  48.68  48.75
       48.82  48.88  48.94  48.99  49.04  49.09  49.13  49.17  49.21  49.24
       49.27  49.30  49.33  49.35  49.37  49.40  49.42  49.44  49.45  49.47
       49.49  49.50  49.52  49.53  49.54  49.55  49.55  49.55  49.55  49.55
  29   48.23  48.23  48.24  48.25  48.26  48.28  48.30  48.32  48.34  48.36
       48.39  48.41  48.43  48.46  48.48  48.52  48.58  48.64  48.71  48.78
       48.84  48.90  48.96  49.02  49.07  49.11  49.16  49.20  49.24  49.27
       49.31  49.34  49.37  49.39  49.42  49.44  49.46  49.48  49.50  49.52
       49.53  49.55  49.56  49.57  49.58  49.58  49.58  49.58  49.58  49.57
  30   48.18  48.18  48.19  48.20  48.22  48.24  48.26  48.29  48.31  48.34
       48.37  48.40  48.44  48.47  48.51  48.55  48.61  48.67  48.73  48.80
       48.86  48.92  48.98  49.04  49.09  49.14  49.18  49.23  49.27  49.31
       49.34  49.37  49.40  49.43  49.46  49.48  49.50  49.52  49.54  49.56
       49.57  49.59  49.60  49.60  49.61  49.61  49.61  49.61  49.60  49.59
  31   48.12  48.12  48.13  48.15  48.17  48.19  48.22  48.25  48.28  48.32
       48.35  48.39  48.43  48.47  48.52  48.57  48.63  48.69  48.75  48.82
       48.88  48.94  49.00  49.06  49.11  49.16  49.21  49.25  49.30  49.33
       49.37  49.41  49.44  49.47  49.49  49.52  49.54  49.56  49.58  49.60
       49.61  49.62  49.63  49.64  49.64  49.64  49.64  49.63  49.62  49.61
  32   48.04  48.05  48.06  48.08  48.10  48.13  48.16  48.20  48.24  48.28
       48.32  48.37  48.42  48.47  48.52  48.58  48.64  48.70  48.77  48.83
       48.89  48.96  49.02  49.07  49.13  49.18  49.23  49.28  49.32  49.36
       49.40  49.44  49.47  49.50  49.53  49.55  49.57  49.60  49.61  49.63
       49.64  49.66  49.66  49.67  49.67  49.67  49.67  49.66  49.64  49.63
  33   47.96  47.97  47.98  48.01  48.03  48.07  48.10  48.14  48.19  48.24
       48.29  48.34  48.40  48.46  48.51  48.58  48.64  48.71  48.77  48.84
       48.90  48.97  49.03  49.09  49.15  49.20  49.25  49.30  49.34  49.39
       49.43  49.46  49.50  49.53  49.56  49.58  49.61  49.63  49.65  49.66
       49.68  49.69  49.69  49.70  49.70  49.70  49.69  49.68  49.66  49.65
  34   47.87  47.88  47.89  47.92  47.95  47.99  48.03  48.08  48.13  48.19
       48.25  48.31  48.37  48.43  48.50  48.57  48.64  48.71  48.77  48.84
       48.91  48.98  49.04  49.10  49.16  49.21  49.27  49.32  49.36  49.41
       49.45  49.49  49.52  49.55  49.58  49.61  49.64  49.66  49.68  49.69
       49.71  49.72  49.72  49.73  49.73  49.72  49.71  49.70  49.69  49.67
  35   47.76  47.77  47.79  47.82  47.86  47.90  47.95  48.01  48.07  48.13
       48.20  48.27  48.34  48.41  48.48  48.55  48.63  48.70  48.77  48.84
       48.91  48.98  49.05  49.11  49.17  49.23  49.28  49.33  49.38  49.43
       49.47  49.51  49.55  49.58  49.61  49.64  49.66  49.68  49.70  49.72
       49.73  49.74  49.75  49.75  49.75  49.75  49.74  49.73  49.71  49.69
  36   47.64  47.65  47.67  47.71  47.75  47.80  47.86  47.92  47.99  48.07
       48.14  48.22  48.30  48.37  48.45  48.53  48.61  48.69  48.77  48.84
       48.91  48.98  49.05  49.12  49.18  49.24  49.30  49.35  49.40  49.45
       49.49  49.53  49.57  49.60  49.63  49.66  49.69  49.71  49.73  49.74
       49.76  49.77  49.77  49.78  49.77  49.77  49.76  49.75  49.73  49.71
  37   47.50  47.51  47.54  47.58  47.63  47.69  47.76  47.83  47.91  47.99
       48.08  48.16  48.25  48.34  48.42  48.51  48.59  48.67  48.75  48.83
       48.91  48.98  49.05  49.12  49.19  49.25  49.31  49.36  49.41  49.46
       49.51  49.55  49.59  49.62  49.65  49.68  49.71  49.73  49.75  49.77
       49.78  49.79  49.80  49.80  49.80  49.79  49.78  49.77  49.75  49.73
  38   47.34  47.36  47.39  47.43  47.49  47.56  47.64  47.73  47.82  47.91
       48.01  48.10  48.20  48.29  48.39  48.48  48.57  48.66  48.74  48.82
       48.90  48.98  49.05  49.12  49.19  49.26  49.32  49.37  49.43  49.48
       49.52  49.56  49.60  49.64  49.67  49.70  49.73  49.75  49.77  49.79
       49.80  49.81  49.82  49.82  49.82  49.81  49.80  49.79  49.77  49.75
  39   47.16  47.18  47.22  47.27  47.34  47.43  47.52  47.62  47.72  47.82
       47.93  48.04  48.14  48.25  48.35  48.45  48.54  48.64  48.73  48.81
       48.90  48.98  49.05  49.13  49.20  49.26  49.32  49.38  49.44  49.49
       49.53  49.58  49.62  49.66  49.69  49.72  49.75  49.77  49.79  49.81
       49.82  49.83  49.84  49.84  49.84  49.83  49.82  49.81  49.79  49.77
  40   46.95  46.98  47.02  47.09  47.18  47.27  47.38  47.49  47.61  47.73
       47.85  47.97  48.08  48.20  48.30  48.41  48.51  48.61  48.71  48.80
       48.89  48.97  49.05  49.13  49.20  49.26  49.33  49.39  49.44  49.50
       49.55  49.59  49.63  49.67  49.71  49.74  49.76  49.79  49.81  49.83
       49.84  49.85  49.86  49.86  49.86  49.85  49.84  49.83  49.81  49.79
  41   46.72  46.75  46.81  46.89  46.99  47.11  47.23  47.36  47.50  47.63
       47.76  47.89  48.02  48.14  48.26  48.37  48.48  48.59  48.69  48.78
       48.88  48.96  49.05  49.12  49.20  49.27  49.33  49.39  49.45  49.51
       49.56  49.60  49.65  49.68  49.72  49.75  49.78  49.80  49.83  49.84
       49.86  49.87  49.87  49.88  49.88  49.87  49.86  49.85  49.83  49.81
  42   46.44  46.48  46.56  46.66  46.79  46.93  47.07  47.23  47.38  47.53
       47.68  47.82  47.96  48.09  48.22  48.34  48.45  48.56  48.67  48.77
       48.86  48.95  49.04  49.12  49.20  49.27  49.34  49.40  49.46  49.51
       49.57  49.61  49.66  49.70  49.73  49.76  49.79  49.82  49.84  49.86
       49.87  49.88  49.89  49.89  49.89  49.89  49.88  49.87  49.85  49.83
  43   46.13  46.18  46.28  46.41  46.56  46.73  46.91  47.08  47.26  47.42
       47.59  47.74  47.89  48.04  48.17  48.30  48.42  48.54  48.65  48.75
       48.85  48.95  49.03  49.12  49.20  49.27  49.34  49.40  49.46  49.52
       49.57  49.62  49.66  49.71  49.74  49.78  49.80  49.83  49.85  49.87
       49.89  49.90  49.90  49.91  49.91  49.91  49.90  49.89  49.87  49.85
  44   45.75  45.82  45.95  46.13  46.32  46.52  46.73  46.93  47.13  47.32
       47.50  47.67  47.83  47.99  48.13  48.27  48.39  48.52  48.63  48.74
       48.84  48.94  49.03  49.11  49.19  49.27  49.34  49.41  49.47  49.53
       49.58  49.63  49.67  49.71  49.75  49.79  49.81  49.84  49.86  49.88
       49.90  49.91  49.92  49.92  49.92  49.92  49.91  49.90  49.89  49.87
  45   45.30  45.41  45.59  45.82  46.06  46.31  46.55  46.79  47.01  47.22
       47.42  47.60  47.77  47.94  48.09  48.23  48.37  48.49  48.61  48.72
       48.83  48.93  49.02  49.11  49.19  49.27  49.34  49.41  49.47  49.53
       49.58  49.63  49.68  49.72  49.76  49.79  49.82  49.85  49.87  49.89
       49.91  49.92  49.93  49.94  49.94  49.93  49.93  49.92  49.91  49.89
  46   44.73  44.90  45.17  45.48  45.79  46.10  46.38  46.65  46.90  47.13
       47.34  47.54  47.72  47.89  48.05  48.20  48.34  48.47  48.60  48.71
       48.82  48.92  49.02  49.11  49.19  49.27  49.34  49.41  49.47  49.53
       49.59  49.64  49.68  49.73  49.77  49.80  49.83  49.86  49.88  49.90
       49.92  49.93  49.94  49.95  49.95  49.95  49.94  49.94  49.92  49.91
  47   43.97  44.30  44.72  45.14  45.53  45.89  46.22  46.52  46.80  47.05
       47.27  47.48  47.68  47.86  48.02  48.18  48.32  48.46  48.58  48.70
       48.81  48.92  49.01  49.10  49.19  49.27  49.34  49.41  49.48  49.54
       49.59  49.64  49.69  49.73  49.77  49.81  49.84  49.86  49.89  49.91
       49.92  49.94  49.95  49.95  49.96  49.96  49.96  49.95  49.94  49.93
  48   42.74  43.55  44.24  44.81  45.30  45.72  46.09  46.42  46.71  46.98
       47.22  47.44  47.64  47.83  48.00  48.16  48.31  48.44  48.57  48.69
       48.81  48.91  49.01  49.10  49.19  49.27  49.34  49.41  49.48  49.54
       49.59  49.64  49.69  49.74  49.77  49.81  49.84  49.87  49.89  49.91
       49.93  49.94  49.95  49.96  49.97  49.97  49.97  49.96  49.96  49.95
  49   39.30  42.71  43.84  44.56  45.12  45.59  45.99  46.35  46.66  46.93
       47.18  47.41  47.62  47.81  47.98  48.15  48.30  48.44  48.57  48.69
       48.80  48.91  49.01  49.10  49.19  49.27  49.34  49.41  49.48  49.54
       49.59  49.65  49.69  49.74  49.78  49.81  49.84  49.87  49.90  49.92
       49.93  49.95  49.96  49.97  49.97  49.97  49.97  49.97  49.97  49.97
  50   41.84  42.85  43.72  44.44  45.03  45.52  45.94  46.31  46.63  46.91
       47.17  47.40  47.61  47.80  47.98  48.14  48.29  48.43  48.56  48.68
       48.80  48.90  49.00  49.10  49.18  49.27  49.34  49.41  49.48  49.54
       49.60  49.65  49.70  49.74  49.78  49.81  49.85  49.87  49.90  49.92
       49.94  49.95  49.96  49.97  49.97  49.98  49.98  49.98  49.98  49.99

 HEAD WILL BE SAVED ON UNIT  30 AT END OF TIME STEP  1, STRESS PERIOD  1
1
  VOLUMETRIC BUDGET FOR ENTIRE MODEL AT END OF TIME STEP  1 IN STRESS PERIOD  1
  -----------------------------------------------------------------------------

     CUMULATIVE VOLUMES      L**3       RATES FOR THIS TIME STEP      L**3/T
     ------------------                 ------------------------

           IN:                                      IN:
           ---                                      ---
       CONSTANT HEAD =       1.3956E-02         CONSTANT HEAD =       1.3956E-02
               WELLS =           0.0000                 WELLS =           0.0000
            RECHARGE =       1.8644E-02              RECHARGE =       1.8644E-02

            TOTAL IN =       3.2600E-02              TOTAL IN =       3.2600E-02

          OUT:                                     OUT:
          ----                                     ----
       CONSTANT HEAD =       6.0927E-04         CONSTANT HEAD =       6.0927E-04
               WELLS =       3.1998E-02                 WELLS =       3.1998E-02
            RECHARGE =           0.0000              RECHARGE =           0.0000

           TOTAL OUT =       3.2607E-02             TOTAL OUT =       3.2607E-02

            IN - OUT =      -7.3686E-06              IN - OUT =      -7.3686E-06

 PERCENT DISCREPANCY =          -0.02     PERCENT DISCREPANCY =          -0.02






          TIME SUMMARY AT END OF TIME STEP  1 IN STRESS PERIOD  1
                    SECONDS     MINUTES      HOURS       DAYS        YEARS
                    -----------------------------------------------------------
   TIME STEP LENGTH  1.0000     1.66667E-02 2.77778E-04 1.15741E-05 3.16881E-08
 STRESS PERIOD TIME  1.0000     1.66667E-02 2.77778E-04 1.15741E-05 3.16881E-08
         TOTAL TIME  1.0000     1.66667E-02 2.77778E-04 1.15741E-05 3.16881E-08
1
